!-Generator IDFEditor 1.47
!-Option SortedOrder

!-NOTE: All comments with '!-' are ignored by the IDFEditor and are generated automatically.
!-      Use '!' comments if they need to be retained when using the IDFEditor.


!-   ===========  ALL OBJECTS IN CLASS: VERSION ===========

! ----  This file was generated with Archsim v.4.3.2.1
Version,
    8.4;                     !- Version Identifier


!-   ===========  ALL OBJECTS IN CLASS: SIMULATIONCONTROL ===========

SimulationControl,
    No,                      !- Do Zone Sizing Calculation
    No,                      !- Do System Sizing Calculation
    No,                      !- Do Plant Sizing Calculation
    No,                      !- Run Simulation for Sizing Periods
    Yes;                     !- Run Simulation for Weather File Run Periods


!-   ===========  ALL OBJECTS IN CLASS: BUILDING ===========

Building,
    Building,                !- Name
    0,                       !- North Axis {deg}
    Suburbs,                 !- Terrain
    0.04,                    !- Loads Convergence Tolerance Value
    0.4,                     !- Temperature Convergence Tolerance Value {deltaC}
    FullInteriorAndExteriorWithReflections,  !- Solar Distribution
    25,                      !- Maximum Number of Warmup Days
    ;                        !- Minimum Number of Warmup Days


!-   ===========  ALL OBJECTS IN CLASS: SHADOWCALCULATION ===========

ShadowCalculation,
    AverageOverDaysInFrequency,  !- Calculation Method
    20,                      !- Calculation Frequency
    15000,                   !- Maximum Figures in Shadow Overlap Calculations
    SutherlandHodgman,       !- Polygon Clipping Algorithm
    SimpleSkyDiffuseModeling;!- Sky Diffuse Modeling Algorithm


!-   ===========  ALL OBJECTS IN CLASS: SURFACECONVECTIONALGORITHM:INSIDE ===========

SurfaceConvectionAlgorithm:Inside,
    TARP;                    !- Algorithm


!-   ===========  ALL OBJECTS IN CLASS: SURFACECONVECTIONALGORITHM:OUTSIDE ===========

SurfaceConvectionAlgorithm:Outside,
    DOE-2;                   !- Algorithm


!-   ===========  ALL OBJECTS IN CLASS: HEATBALANCEALGORITHM ===========

HeatBalanceAlgorithm,
    ConductionTransferFunction,  !- Algorithm
    200,                     !- Surface Temperature Upper Limit {C}
    0.1,                     !- Minimum Surface Convection Heat Transfer Coefficient Value {W/m2-K}
    1000;                    !- Maximum Surface Convection Heat Transfer Coefficient Value {W/m2-K}


!-   ===========  ALL OBJECTS IN CLASS: TIMESTEP ===========

Timestep,
    6;                       !- Number of Timesteps per Hour


!-   ===========  ALL OBJECTS IN CLASS: CONVERGENCELIMITS ===========

ConvergenceLimits,
    1,                       !- Minimum System Timestep {minutes}
    50;                      !- Maximum HVAC Iterations


!-   ===========  ALL OBJECTS IN CLASS: PROGRAMCONTROL ===========

ProgramControl,
    4;                       !- Number of Threads Allowed


!-   ===========  ALL OBJECTS IN CLASS: RUNPERIOD ===========

RunPeriod,
    Archsim,                 !- Name
    1,                       !- Begin Month
    1,                       !- Begin Day of Month
    12,                      !- End Month
    31,                      !- End Day of Month
    UseWeatherFile,          !- Day of Week for Start Day
    No,                      !- Use Weather File Holidays and Special Days
    No,                      !- Use Weather File Daylight Saving Period
    Yes,                     !- Apply Weekend Holiday Rule
    Yes,                     !- Use Weather File Rain Indicators
    Yes,                     !- Use Weather File Snow Indicators
    1;                       !- Number of Times Runperiod to be Repeated


!-   ===========  ALL OBJECTS IN CLASS: RUNPERIODCONTROL:DAYLIGHTSAVINGTIME ===========

RunPeriodControl:DaylightSavingTime,
    Last Sunday in March,    !- Start Date
    Last Sunday in October;  !- End Date


!-   ===========  ALL OBJECTS IN CLASS: SITE:GROUNDTEMPERATURE:BUILDINGSURFACE ===========

Site:GroundTemperature:BuildingSurface,
    14,                      !- January Ground Temperature {C}
    14,                      !- February Ground Temperature {C}
    14,                      !- March Ground Temperature {C}
    14,                      !- April Ground Temperature {C}
    14,                      !- May Ground Temperature {C}
    14,                      !- June Ground Temperature {C}
    14,                      !- July Ground Temperature {C}
    14,                      !- August Ground Temperature {C}
    14,                      !- September Ground Temperature {C}
    14,                      !- October Ground Temperature {C}
    14,                      !- November Ground Temperature {C}
    14;                      !- December Ground Temperature {C}


!-   ===========  ALL OBJECTS IN CLASS: SITE:GROUNDREFLECTANCE ===========

Site:GroundReflectance,
    0.2,                     !- January Ground Reflectance {dimensionless}
    0.2,                     !- February Ground Reflectance {dimensionless}
    0.2,                     !- March Ground Reflectance {dimensionless}
    0.2,                     !- April Ground Reflectance {dimensionless}
    0.2,                     !- May Ground Reflectance {dimensionless}
    0.2,                     !- June Ground Reflectance {dimensionless}
    0.2,                     !- July Ground Reflectance {dimensionless}
    0.2,                     !- August Ground Reflectance {dimensionless}
    0.2,                     !- September Ground Reflectance {dimensionless}
    0.2,                     !- October Ground Reflectance {dimensionless}
    0.2,                     !- November Ground Reflectance {dimensionless}
    0.2;                     !- December Ground Reflectance {dimensionless}


!-   ===========  ALL OBJECTS IN CLASS: SITE:GROUNDREFLECTANCE:SNOWMODIFIER ===========

Site:GroundReflectance:SnowModifier,
    1.0,                     !- Ground Reflected Solar Modifier
    1.0;                     !- Daylighting Ground Reflected Solar Modifier


!-   ===========  ALL OBJECTS IN CLASS: SCHEDULETYPELIMITS ===========

ScheduleTypeLimits,
    Any Number;              !- Name

ScheduleTypeLimits,
    Fraction,                !- Name
    0.0,                     !- Lower Limit Value
    1.0,                     !- Upper Limit Value
    CONTINUOUS;              !- Numeric Type

ScheduleTypeLimits,
    Temperature,             !- Name
    -60,                     !- Lower Limit Value
    200,                     !- Upper Limit Value
    CONTINUOUS;              !- Numeric Type

ScheduleTypeLimits,
    Control Type,            !- Name
    0,                       !- Lower Limit Value
    4,                       !- Upper Limit Value
    DISCRETE;                !- Numeric Type

ScheduleTypeLimits,
    On/Off,                  !- Name
    0,                       !- Lower Limit Value
    1,                       !- Upper Limit Value
    DISCRETE;                !- Numeric Type


!-   ===========  ALL OBJECTS IN CLASS: SCHEDULE:DAY:HOURLY ===========

Schedule:Day:Hourly,
    AllOff,                  !- Name
    Fraction,                !- Schedule Type Limits Name
    0,                       !- Hour 1
    0,                       !- Hour 2
    0,                       !- Hour 3
    0,                       !- Hour 4
    0,                       !- Hour 5
    0,                       !- Hour 6
    0,                       !- Hour 7
    0,                       !- Hour 8
    0,                       !- Hour 9
    0,                       !- Hour 10
    0,                       !- Hour 11
    0,                       !- Hour 12
    0,                       !- Hour 13
    0,                       !- Hour 14
    0,                       !- Hour 15
    0,                       !- Hour 16
    0,                       !- Hour 17
    0,                       !- Hour 18
    0,                       !- Hour 19
    0,                       !- Hour 20
    0,                       !- Hour 21
    0,                       !- Hour 22
    0,                       !- Hour 23
    0;                       !- Hour 24

Schedule:Day:Hourly,
    AllOn,                   !- Name
    Fraction,                !- Schedule Type Limits Name
    1,                       !- Hour 1
    1,                       !- Hour 2
    1,                       !- Hour 3
    1,                       !- Hour 4
    1,                       !- Hour 5
    1,                       !- Hour 6
    1,                       !- Hour 7
    1,                       !- Hour 8
    1,                       !- Hour 9
    1,                       !- Hour 10
    1,                       !- Hour 11
    1,                       !- Hour 12
    1,                       !- Hour 13
    1,                       !- Hour 14
    1,                       !- Hour 15
    1,                       !- Hour 16
    1,                       !- Hour 17
    1,                       !- Hour 18
    1,                       !- Hour 19
    1,                       !- Hour 20
    1,                       !- Hour 21
    1,                       !- Hour 22
    1,                       !- Hour 23
    1;                       !- Hour 24

Schedule:Day:Hourly,
    D_Lights,                !- Name
    Fraction,                !- Schedule Type Limits Name
    1,                       !- Hour 1
    1,                       !- Hour 2
    1,                       !- Hour 3
    1,                       !- Hour 4
    1,                       !- Hour 5
    1,                       !- Hour 6
    1,                       !- Hour 7
    1,                       !- Hour 8
    1,                       !- Hour 9
    0,                       !- Hour 10
    0,                       !- Hour 11
    0,                       !- Hour 12
    1,                       !- Hour 13
    1,                       !- Hour 14
    1,                       !- Hour 15
    1,                       !- Hour 16
    1,                       !- Hour 17
    1,                       !- Hour 18
    1,                       !- Hour 19
    1,                       !- Hour 20
    1,                       !- Hour 21
    0,                       !- Hour 22
    0,                       !- Hour 23
    0;                       !- Hour 24

Schedule:Day:Hourly,
    D_Equipment,             !- Name
    Fraction,                !- Schedule Type Limits Name
    0.5,                     !- Hour 1
    0.5,                     !- Hour 2
    0.5,                     !- Hour 3
    0.5,                     !- Hour 4
    0.5,                     !- Hour 5
    0.5,                     !- Hour 6
    0.5,                     !- Hour 7
    0.5,                     !- Hour 8
    0.5,                     !- Hour 9
    0.4,                     !- Hour 10
    0.4,                     !- Hour 11
    0.4,                     !- Hour 12
    0.5,                     !- Hour 13
    0.5,                     !- Hour 14
    0.5,                     !- Hour 15
    0.5,                     !- Hour 16
    0.5,                     !- Hour 17
    0.5,                     !- Hour 18
    0.5,                     !- Hour 19
    0.5,                     !- Hour 20
    0.5,                     !- Hour 21
    0.4,                     !- Hour 22
    0.4,                     !- Hour 23
    0.4;                     !- Hour 24

Schedule:Day:Hourly,
    D_Ventilation,           !- Name
    Fraction,                !- Schedule Type Limits Name
    0,                       !- Hour 1
    0,                       !- Hour 2
    0,                       !- Hour 3
    0,                       !- Hour 4
    0,                       !- Hour 5
    0,                       !- Hour 6
    0,                       !- Hour 7
    0,                       !- Hour 8
    0,                       !- Hour 9
    0.02,                    !- Hour 10
    0.02,                    !- Hour 11
    0,                       !- Hour 12
    0,                       !- Hour 13
    0,                       !- Hour 14
    0,                       !- Hour 15
    0,                       !- Hour 16
    0,                       !- Hour 17
    0,                       !- Hour 18
    0,                       !- Hour 19
    0,                       !- Hour 20
    0,                       !- Hour 21
    0.02,                    !- Hour 22
    0.02,                    !- Hour 23
    0;                       !- Hour 24

Schedule:Day:Hourly,
    D_PlantsLatent,          !- Name
    Fraction,                !- Schedule Type Limits Name
    1,                       !- Hour 1
    1,                       !- Hour 2
    1,                       !- Hour 3
    1,                       !- Hour 4
    1,                       !- Hour 5
    1,                       !- Hour 6
    1,                       !- Hour 7
    1,                       !- Hour 8
    1,                       !- Hour 9
    0.75,                    !- Hour 10
    0.75,                    !- Hour 11
    0.75,                    !- Hour 12
    1,                       !- Hour 13
    1,                       !- Hour 14
    1,                       !- Hour 15
    1,                       !- Hour 16
    1,                       !- Hour 17
    1,                       !- Hour 18
    1,                       !- Hour 19
    1,                       !- Hour 20
    1,                       !- Hour 21
    0.75,                    !- Hour 22
    0.75,                    !- Hour 23
    0.75;                    !- Hour 24

Schedule:Day:Hourly,
    D_PlantsSens,            !- Name
    Fraction,                !- Schedule Type Limits Name
    0.6,                     !- Hour 1
    0.6,                     !- Hour 2
    0.6,                     !- Hour 3
    0.6,                     !- Hour 4
    0.6,                     !- Hour 5
    0.6,                     !- Hour 6
    0.6,                     !- Hour 7
    0.6,                     !- Hour 8
    0.6,                     !- Hour 9
    1,                       !- Hour 10
    1,                       !- Hour 11
    1,                       !- Hour 12
    0.6,                     !- Hour 13
    0.6,                     !- Hour 14
    0.6,                     !- Hour 15
    0.6,                     !- Hour 16
    0.6,                     !- Hour 17
    0.6,                     !- Hour 18
    0.6,                     !- Hour 19
    0.6,                     !- Hour 20
    0.6,                     !- Hour 21
    1,                       !- Hour 22
    1,                       !- Hour 23
    1;                       !- Hour 24

Schedule:Day:Hourly,
    N_Lights,                !- Name
    Fraction,                !- Schedule Type Limits Name
    1,                       !- Hour 1
    1,                       !- Hour 2
    1,                       !- Hour 3
    1,                       !- Hour 4
    1,                       !- Hour 5
    1,                       !- Hour 6
    1,                       !- Hour 7
    1,                       !- Hour 8
    1,                       !- Hour 9
    1,                       !- Hour 10
    1,                       !- Hour 11
    1,                       !- Hour 12
    0,                       !- Hour 13
    0,                       !- Hour 14
    0,                       !- Hour 15
    0,                       !- Hour 16
    0,                       !- Hour 17
    0,                       !- Hour 18
    1,                       !- Hour 19
    1,                       !- Hour 20
    1,                       !- Hour 21
    1,                       !- Hour 22
    1,                       !- Hour 23
    1;                       !- Hour 24

Schedule:Day:Hourly,
    N_Equipment,             !- Name
    Fraction,                !- Schedule Type Limits Name
    0.5,                     !- Hour 1
    0.5,                     !- Hour 2
    0.5,                     !- Hour 3
    0.5,                     !- Hour 4
    0.5,                     !- Hour 5
    0.5,                     !- Hour 6
    0.5,                     !- Hour 7
    0.5,                     !- Hour 8
    0.5,                     !- Hour 9
    0.5,                     !- Hour 10
    0.5,                     !- Hour 11
    0.5,                     !- Hour 12
    0.4,                     !- Hour 13
    0.4,                     !- Hour 14
    0.4,                     !- Hour 15
    0.4,                     !- Hour 16
    0.4,                     !- Hour 17
    0.4,                     !- Hour 18
    0.5,                     !- Hour 19
    0.5,                     !- Hour 20
    0.5,                     !- Hour 21
    0.5,                     !- Hour 22
    0.5,                     !- Hour 23
    0.5;                     !- Hour 24

Schedule:Day:Hourly,
    N_Ventilation,           !- Name
    Fraction,                !- Schedule Type Limits Name
    0,                       !- Hour 1
    0,                       !- Hour 2
    0,                       !- Hour 3
    0,                       !- Hour 4
    0,                       !- Hour 5
    0,                       !- Hour 6
    0,                       !- Hour 7
    0,                       !- Hour 8
    0,                       !- Hour 9
    0,                       !- Hour 10
    0,                       !- Hour 11
    0,                       !- Hour 12
    0,                       !- Hour 13
    0,                       !- Hour 14
    0,                       !- Hour 15
    0,                       !- Hour 16
    0,                       !- Hour 17
    0,                       !- Hour 18
    0.02,                    !- Hour 19
    0.02,                    !- Hour 20
    0.02,                    !- Hour 21
    0,                       !- Hour 22
    0,                       !- Hour 23
    0;                       !- Hour 24

Schedule:Day:Hourly,
    N_PlantsLatent,          !- Name
    Fraction,                !- Schedule Type Limits Name
    1,                       !- Hour 1
    1,                       !- Hour 2
    1,                       !- Hour 3
    1,                       !- Hour 4
    1,                       !- Hour 5
    1,                       !- Hour 6
    1,                       !- Hour 7
    1,                       !- Hour 8
    1,                       !- Hour 9
    1,                       !- Hour 10
    1,                       !- Hour 11
    1,                       !- Hour 12
    0.75,                    !- Hour 13
    0.75,                    !- Hour 14
    0.75,                    !- Hour 15
    0.75,                    !- Hour 16
    0.75,                    !- Hour 17
    0.75,                    !- Hour 18
    1,                       !- Hour 19
    1,                       !- Hour 20
    1,                       !- Hour 21
    1,                       !- Hour 22
    1,                       !- Hour 23
    1;                       !- Hour 24

Schedule:Day:Hourly,
    N_PlantsSens,            !- Name
    Fraction,                !- Schedule Type Limits Name
    0.6,                     !- Hour 1
    0.6,                     !- Hour 2
    0.6,                     !- Hour 3
    0.6,                     !- Hour 4
    0.6,                     !- Hour 5
    0.6,                     !- Hour 6
    0.6,                     !- Hour 7
    0.6,                     !- Hour 8
    0.6,                     !- Hour 9
    0.6,                     !- Hour 10
    0.6,                     !- Hour 11
    0.6,                     !- Hour 12
    1,                       !- Hour 13
    1,                       !- Hour 14
    1,                       !- Hour 15
    1,                       !- Hour 16
    1,                       !- Hour 17
    1,                       !- Hour 18
    0.6,                     !- Hour 19
    0.6,                     !- Hour 20
    0.6,                     !- Hour 21
    0.6,                     !- Hour 22
    0.6,                     !- Hour 23
    0.6;                     !- Hour 24


!-   ===========  ALL OBJECTS IN CLASS: SCHEDULE:WEEK:DAILY ===========

Schedule:Week:Daily,
    AllOff0,                 !- Name
    AllOff,                  !- Sunday Schedule:Day Name
    AllOff,                  !- Monday Schedule:Day Name
    AllOff,                  !- Tuesday Schedule:Day Name
    AllOff,                  !- Wednesday Schedule:Day Name
    AllOff,                  !- Thursday Schedule:Day Name
    AllOff,                  !- Friday Schedule:Day Name
    AllOff,                  !- Saturday Schedule:Day Name
    AllOff,                  !- Holiday Schedule:Day Name
    AllOff,                  !- SummerDesignDay Schedule:Day Name
    AllOff,                  !- WinterDesignDay Schedule:Day Name
    AllOff,                  !- CustomDay1 Schedule:Day Name
    AllOff;                  !- CustomDay2 Schedule:Day Name

Schedule:Week:Daily,
    AllOn0,                  !- Name
    AllOn,                   !- Sunday Schedule:Day Name
    AllOn,                   !- Monday Schedule:Day Name
    AllOn,                   !- Tuesday Schedule:Day Name
    AllOn,                   !- Wednesday Schedule:Day Name
    AllOn,                   !- Thursday Schedule:Day Name
    AllOn,                   !- Friday Schedule:Day Name
    AllOn,                   !- Saturday Schedule:Day Name
    AllOn,                   !- Holiday Schedule:Day Name
    AllOn,                   !- SummerDesignDay Schedule:Day Name
    AllOn,                   !- WinterDesignDay Schedule:Day Name
    AllOn,                   !- CustomDay1 Schedule:Day Name
    AllOn;                   !- CustomDay2 Schedule:Day Name

Schedule:Week:Daily,
    W_Lights,                !- Name
    D_Lights,                !- Sunday Schedule:Day Name
    D_Lights,                !- Monday Schedule:Day Name
    D_Lights,                !- Tuesday Schedule:Day Name
    D_Lights,                !- Wednesday Schedule:Day Name
    D_Lights,                !- Thursday Schedule:Day Name
    D_Lights,                !- Friday Schedule:Day Name
    D_Lights,                !- Saturday Schedule:Day Name
    D_Lights,                !- Holiday Schedule:Day Name
    D_Lights,                !- SummerDesignDay Schedule:Day Name
    D_Lights,                !- WinterDesignDay Schedule:Day Name
    D_Lights,                !- CustomDay1 Schedule:Day Name
    D_Lights;                !- CustomDay2 Schedule:Day Name

Schedule:Week:Daily,
    W_Equipment,             !- Name
    D_Equipment,             !- Sunday Schedule:Day Name
    D_Equipment,             !- Monday Schedule:Day Name
    D_Equipment,             !- Tuesday Schedule:Day Name
    D_Equipment,             !- Wednesday Schedule:Day Name
    D_Equipment,             !- Thursday Schedule:Day Name
    D_Equipment,             !- Friday Schedule:Day Name
    D_Equipment,             !- Saturday Schedule:Day Name
    D_Equipment,             !- Holiday Schedule:Day Name
    D_Equipment,             !- SummerDesignDay Schedule:Day Name
    D_Equipment,             !- WinterDesignDay Schedule:Day Name
    D_Equipment,             !- CustomDay1 Schedule:Day Name
    D_Equipment;             !- CustomDay2 Schedule:Day Name

Schedule:Week:Daily,
    W_Ventilation,           !- Name
    D_Ventilation,           !- Sunday Schedule:Day Name
    D_Ventilation,           !- Monday Schedule:Day Name
    D_Ventilation,           !- Tuesday Schedule:Day Name
    D_Ventilation,           !- Wednesday Schedule:Day Name
    D_Ventilation,           !- Thursday Schedule:Day Name
    D_Ventilation,           !- Friday Schedule:Day Name
    D_Ventilation,           !- Saturday Schedule:Day Name
    D_Ventilation,           !- Holiday Schedule:Day Name
    D_Ventilation,           !- SummerDesignDay Schedule:Day Name
    D_Ventilation,           !- WinterDesignDay Schedule:Day Name
    D_Ventilation,           !- CustomDay1 Schedule:Day Name
    D_Ventilation;           !- CustomDay2 Schedule:Day Name

Schedule:Week:Daily,
    W_PlantsLatent,          !- Name
    D_PlantsLatent,          !- Sunday Schedule:Day Name
    D_PlantsLatent,          !- Monday Schedule:Day Name
    D_PlantsLatent,          !- Tuesday Schedule:Day Name
    D_PlantsLatent,          !- Wednesday Schedule:Day Name
    D_PlantsLatent,          !- Thursday Schedule:Day Name
    D_PlantsLatent,          !- Friday Schedule:Day Name
    D_PlantsLatent,          !- Saturday Schedule:Day Name
    D_PlantsLatent,          !- Holiday Schedule:Day Name
    D_PlantsLatent,          !- SummerDesignDay Schedule:Day Name
    D_PlantsLatent,          !- WinterDesignDay Schedule:Day Name
    D_PlantsLatent,          !- CustomDay1 Schedule:Day Name
    D_PlantsLatent;          !- CustomDay2 Schedule:Day Name

Schedule:Week:Daily,
    W_PlantsSens,            !- Name
    D_PlantsSens,            !- Sunday Schedule:Day Name
    D_PlantsSens,            !- Monday Schedule:Day Name
    D_PlantsSens,            !- Tuesday Schedule:Day Name
    D_PlantsSens,            !- Wednesday Schedule:Day Name
    D_PlantsSens,            !- Thursday Schedule:Day Name
    D_PlantsSens,            !- Friday Schedule:Day Name
    D_PlantsSens,            !- Saturday Schedule:Day Name
    D_PlantsSens,            !- Holiday Schedule:Day Name
    D_PlantsSens,            !- SummerDesignDay Schedule:Day Name
    D_PlantsSens,            !- WinterDesignDay Schedule:Day Name
    D_PlantsSens,            !- CustomDay1 Schedule:Day Name
    D_PlantsSens;            !- CustomDay2 Schedule:Day Name

Schedule:Week:Daily,
    WN_Lights,               !- Name
    D_Lights,                !- Sunday Schedule:Day Name
    D_Lights,                !- Monday Schedule:Day Name
    D_Lights,                !- Tuesday Schedule:Day Name
    D_Lights,                !- Wednesday Schedule:Day Name
    D_Lights,                !- Thursday Schedule:Day Name
    D_Lights,                !- Friday Schedule:Day Name
    D_Lights,                !- Saturday Schedule:Day Name
    D_Lights,                !- Holiday Schedule:Day Name
    D_Lights,                !- SummerDesignDay Schedule:Day Name
    D_Lights,                !- WinterDesignDay Schedule:Day Name
    D_Lights,                !- CustomDay1 Schedule:Day Name
    D_Lights;                !- CustomDay2 Schedule:Day Name

Schedule:Week:Daily,
    WN_Equipment,            !- Name
    D_Equipment,             !- Sunday Schedule:Day Name
    D_Equipment,             !- Monday Schedule:Day Name
    D_Equipment,             !- Tuesday Schedule:Day Name
    D_Equipment,             !- Wednesday Schedule:Day Name
    D_Equipment,             !- Thursday Schedule:Day Name
    D_Equipment,             !- Friday Schedule:Day Name
    D_Equipment,             !- Saturday Schedule:Day Name
    D_Equipment,             !- Holiday Schedule:Day Name
    D_Equipment,             !- SummerDesignDay Schedule:Day Name
    D_Equipment,             !- WinterDesignDay Schedule:Day Name
    D_Equipment,             !- CustomDay1 Schedule:Day Name
    D_Equipment;             !- CustomDay2 Schedule:Day Name

Schedule:Week:Daily,
    WN_Ventilation,          !- Name
    D_Ventilation,           !- Sunday Schedule:Day Name
    D_Ventilation,           !- Monday Schedule:Day Name
    D_Ventilation,           !- Tuesday Schedule:Day Name
    D_Ventilation,           !- Wednesday Schedule:Day Name
    D_Ventilation,           !- Thursday Schedule:Day Name
    D_Ventilation,           !- Friday Schedule:Day Name
    D_Ventilation,           !- Saturday Schedule:Day Name
    D_Ventilation,           !- Holiday Schedule:Day Name
    D_Ventilation,           !- SummerDesignDay Schedule:Day Name
    D_Ventilation,           !- WinterDesignDay Schedule:Day Name
    D_Ventilation,           !- CustomDay1 Schedule:Day Name
    D_Ventilation;           !- CustomDay2 Schedule:Day Name

Schedule:Week:Daily,
    WN_PlantsLatent,         !- Name
    D_PlantsLatent,          !- Sunday Schedule:Day Name
    D_PlantsLatent,          !- Monday Schedule:Day Name
    D_PlantsLatent,          !- Tuesday Schedule:Day Name
    D_PlantsLatent,          !- Wednesday Schedule:Day Name
    D_PlantsLatent,          !- Thursday Schedule:Day Name
    D_PlantsLatent,          !- Friday Schedule:Day Name
    D_PlantsLatent,          !- Saturday Schedule:Day Name
    D_PlantsLatent,          !- Holiday Schedule:Day Name
    D_PlantsLatent,          !- SummerDesignDay Schedule:Day Name
    D_PlantsLatent,          !- WinterDesignDay Schedule:Day Name
    D_PlantsLatent,          !- CustomDay1 Schedule:Day Name
    D_PlantsLatent;          !- CustomDay2 Schedule:Day Name

Schedule:Week:Daily,
    WN_PlantsSens,           !- Name
    D_PlantsSens,            !- Sunday Schedule:Day Name
    D_PlantsSens,            !- Monday Schedule:Day Name
    D_PlantsSens,            !- Tuesday Schedule:Day Name
    D_PlantsSens,            !- Wednesday Schedule:Day Name
    D_PlantsSens,            !- Thursday Schedule:Day Name
    D_PlantsSens,            !- Friday Schedule:Day Name
    D_PlantsSens,            !- Saturday Schedule:Day Name
    D_PlantsSens,            !- Holiday Schedule:Day Name
    D_PlantsSens,            !- SummerDesignDay Schedule:Day Name
    D_PlantsSens,            !- WinterDesignDay Schedule:Day Name
    D_PlantsSens,            !- CustomDay1 Schedule:Day Name